@<TRIPOS>MOLECULE
GYE
  144   144     1     0     0
SMALL
bcc


@<TRIPOS>ATOM
      1 C1          10.9500   -10.2620    28.3130 c3         1 GYE      -0.092100
      2 C2          10.3000    -9.2750    27.3570 c3         1 GYE      -0.080400
      3 C3           9.8270    -9.9510    26.0730 c3         1 GYE      -0.079400
      4 C4           9.1700    -8.9570    25.1080 c3         1 GYE      -0.079400
      5 C5           8.6900    -9.6290    23.8130 c3         1 GYE      -0.079400
      6 C6           8.0270    -8.6520    22.8270 c3         1 GYE      -0.079400
      7 C7           7.5490    -9.3370    21.5310 c3         1 GYE      -0.079400
      8 C8           6.8810    -8.3710    20.5310 c3         1 GYE      -0.079400
      9 C9           6.4020    -9.0510    19.2300 c3         1 GYE      -0.079400
     10 C10          5.7400    -8.0690    18.2390 c3         1 GYE      -0.079400
     11 C11          5.2550    -8.7150    16.9220 c3         1 GYE      -0.079400
     12 C12          4.6080    -7.7000    15.9540 c3         1 GYE      -0.079400
     13 C13          4.1170    -8.3070    14.6200 c3         1 GYE      -0.079400
     14 C14          3.4810    -7.2640    13.6730 c3         1 GYE      -0.079400
     15 C15          2.9640    -7.8500    12.3410 c3         1 GYE      -0.079400
     16 C16          2.3260    -6.7970    11.4080 c3         1 GYE      -0.079400
     17 C17          1.7240    -7.3980    10.1200 c3         1 GYE      -0.079400
     18 C18          1.0960    -6.3560     9.1690 c3         1 GYE      -0.079400
     19 C19          0.2930    -7.0050     8.0270 c3         1 GYE      -0.080400
     20 C20         -0.2180    -6.0220     6.9560 c3         1 GYE      -0.076400
     21 C21         -1.2790    -6.6870     6.0700 c3         1 GYE      -0.153400
     22 C22         -1.6330    -5.9870     4.7640 c          1 GYE       0.659100
     23 O1          -2.7910    -5.6890     4.5200 o          1 GYE      -0.603100
     24 N1          -0.6310    -6.0380     3.8060 n          1 GYE      -0.569900
     25 C23         -0.9060    -6.0300     2.3610 c3         1 GYE       0.071700
     26 C24         -0.0910    -4.9390     1.6380 c3         1 GYE       0.125400
     27 O2          -0.5660    -4.7920     0.2900 os         1 GYE      -0.420600
     28 C25          0.3400    -4.0900    -0.5830 c3         1 GYE       0.307900
     29 O3           0.3530    -2.6930    -0.2840 os         1 GYE      -0.444600
     30 C26          1.2160    -1.9550    -1.1640 c3         1 GYE       0.107100
     31 C27          1.2220    -0.4970    -0.7120 c3         1 GYE       0.141400
     32 O4           1.7690    -0.3870     0.5960 oh         1 GYE      -0.594800
     33 C28          0.7160    -2.0500    -2.5990 c3         1 GYE       0.122100
     34 O5           1.5980    -1.3390    -3.4670 oh         1 GYE      -0.594800
     35 C29          0.6460    -3.5020    -3.0300 c3         1 GYE       0.108100
     36 O6           0.0120    -3.5860    -4.3080 oh         1 GYE      -0.604800
     37 C30         -0.1630    -4.2950    -2.0150 c3         1 GYE       0.088100
     38 O7          -0.0920    -5.6780    -2.3580 oh         1 GYE      -0.607800
     39 C31         -0.6360    -7.4570     1.8390 c3         1 GYE       0.155300
     40 O8           0.7590    -7.7160     1.9860 oh         1 GYE      -0.601800
     41 C32         -1.0600    -7.7540     0.4250 c2         1 GYE      -0.212200
     42 C33         -0.7850    -8.9120    -0.2240 c2         1 GYE      -0.157200
     43 C34         -1.1600    -9.1850    -1.6490 c3         1 GYE      -0.055200
     44 C35          0.0580    -9.1210    -2.5820 c3         1 GYE      -0.080400
     45 C36         -0.3300    -9.1590    -4.0680 c3         1 GYE      -0.078400
     46 C37          0.8750    -8.9830    -5.0170 c3         1 GYE      -0.079400
     47 C38          0.4880    -8.9590    -6.5140 c3         1 GYE      -0.079400
     48 C39          1.6690    -8.7470    -7.4910 c3         1 GYE      -0.079400
     49 C40          1.2300    -8.7760    -8.9730 c3         1 GYE      -0.079400
     50 C41          2.3750    -8.6240    -9.9960 c3         1 GYE      -0.079400
     51 C42          1.9080    -8.8140   -11.4530 c3         1 GYE      -0.079400
     52 C43          3.0580    -8.7700   -12.4720 c3         1 GYE      -0.079400
     53 C44          2.6100    -9.0970   -13.9030 c3         1 GYE      -0.079400
     54 C45          3.7860    -9.0780   -14.8770 c3         1 GYE      -0.080400
     55 C46          3.3670    -9.4290   -16.2960 c3         1 GYE      -0.092100
     56 H1          11.8260   -10.7340    27.8600 hc         1 GYE       0.032700
     57 H2          10.2490   -11.0490    28.6060 hc         1 GYE       0.032700
     58 H3          11.2790    -9.7520    29.2240 hc         1 GYE       0.032700
     59 H4          11.0220    -8.4880    27.1210 hc         1 GYE       0.038700
     60 H5           9.4560    -8.8010    27.8630 hc         1 GYE       0.038700
     61 H6           9.1180   -10.7430    26.3290 hc         1 GYE       0.039700
     62 H7          10.6810   -10.4300    25.5870 hc         1 GYE       0.039700
     63 H8           9.8870    -8.1670    24.8700 hc         1 GYE       0.039700
     64 H9           8.3250    -8.4790    25.6110 hc         1 GYE       0.039700
     65 H10          7.9830   -10.4220    24.0680 hc         1 GYE       0.039700
     66 H11          9.5440   -10.1100    23.3270 hc         1 GYE       0.039700
     67 H12          8.7370    -7.8590    22.5780 hc         1 GYE       0.039700
     68 H13          7.1760    -8.1710    23.3180 hc         1 GYE       0.039700
     69 H14          6.8440   -10.1310    21.7900 hc         1 GYE       0.039700
     70 H15          8.4040    -9.8190    21.0500 hc         1 GYE       0.039700
     71 H16          7.5890    -7.5770    20.2790 hc         1 GYE       0.039700
     72 H17          6.0290    -7.8890    21.0180 hc         1 GYE       0.039700
     73 H18          5.6920    -9.8440    19.4820 hc         1 GYE       0.039700
     74 H19          7.2540    -9.5340    18.7450 hc         1 GYE       0.039700
     75 H20          6.4520    -7.2750    18.0020 hc         1 GYE       0.039700
     76 H21          4.8900    -7.5910    18.7320 hc         1 GYE       0.039700
     77 H22          4.5330    -9.5040    17.1520 hc         1 GYE       0.039700
     78 H23          6.1010    -9.1980    16.4250 hc         1 GYE       0.039700
     79 H24          5.3300    -6.9090    15.7370 hc         1 GYE       0.039700
     80 H25          3.7620    -7.2220    16.4560 hc         1 GYE       0.039700
     81 H26          3.3870    -9.0930    14.8300 hc         1 GYE       0.039700
     82 H27          4.9590    -8.7860    14.1120 hc         1 GYE       0.039700
     83 H28          4.2170    -6.4850    13.4570 hc         1 GYE       0.040200
     84 H29          2.6510    -6.7760    14.1900 hc         1 GYE       0.040200
     85 H30          2.2290    -8.6300    12.5560 hc         1 GYE       0.039700
     86 H31          3.7920    -8.3350    11.8170 hc         1 GYE       0.039700
     87 H32          3.0780    -6.0510    11.1400 hc         1 GYE       0.040200
     88 H33          1.5380    -6.2690    11.9520 hc         1 GYE       0.040200
     89 H34          0.9650    -8.1340    10.3930 hc         1 GYE       0.040200
     90 H35          2.5050    -7.9400     9.5780 hc         1 GYE       0.040200
     91 H36          1.8840    -5.7260     8.7470 hc         1 GYE       0.041700
     92 H37          0.4330    -5.6980     9.7380 hc         1 GYE       0.041700
     93 H38         -0.5600    -7.5360     8.4590 hc         1 GYE       0.042700
     94 H39          0.9110    -7.7610     7.5340 hc         1 GYE       0.042700
     95 H40          0.6150    -5.6630     6.3480 hc         1 GYE       0.048200
     96 H41         -0.6620    -5.1460     7.4370 hc         1 GYE       0.048200
     97 H42         -2.2090    -6.7700     6.6410 hc         1 GYE       0.072200
     98 H43         -0.9730    -7.7040     5.8160 hc         1 GYE       0.072200
     99 H44          0.3030    -6.2950     4.1060 hn         1 GYE       0.318500
    100 H45         -1.9710    -5.8210     2.2060 h1         1 GYE       0.113700
    101 H46          0.9770    -5.1680     1.6440 h1         1 GYE       0.044200
    102 H47         -0.2320    -3.9820     2.1490 h1         1 GYE       0.044200
    103 H48          1.3460    -4.5090    -0.4670 h2         1 GYE       0.052700
    104 H49          2.2320    -2.3580    -1.0860 h1         1 GYE       0.067700
    105 H50          0.2050    -0.0950    -0.6800 h1         1 GYE       0.065700
    106 H51          1.8230     0.1310    -1.3760 h1         1 GYE       0.065700
    107 H52          1.2150    -0.9440     1.1690 ho         1 GYE       0.410000
    108 H53         -0.2750    -1.5940    -2.6900 h1         1 GYE       0.065700
    109 H54          1.3060    -1.5310    -4.3750 ho         1 GYE       0.426000
    110 H55          1.6500    -3.9220    -3.1460 h1         1 GYE       0.063700
    111 H56         -0.1240    -4.5320    -4.4880 ho         1 GYE       0.427000
    112 H57         -1.2160    -4.0000    -2.0870 h1         1 GYE       0.079700
    113 H58         -0.5720    -6.1580    -1.6620 ho         1 GYE       0.427000
    114 H59         -1.1640    -8.1540     2.4980 h1         1 GYE       0.089700
    115 H60          1.0140    -8.2590     1.2210 ho         1 GYE       0.402000
    116 H61         -1.6140    -7.0020    -0.1130 ha         1 GYE       0.144000
    117 H62         -0.2620    -9.6850     0.3200 ha         1 GYE       0.131000
    118 H63         -1.9260    -8.4790    -1.9810 hc         1 GYE       0.050200
    119 H64         -1.6140   -10.1810    -1.6960 hc         1 GYE       0.050200
    120 H65          0.7290    -9.9540    -2.3510 hc         1 GYE       0.045200
    121 H66          0.6190    -8.2060    -2.3800 hc         1 GYE       0.045200
    122 H67         -1.0600    -8.3680    -4.2550 hc         1 GYE       0.040700
    123 H68         -0.8320   -10.1080    -4.2760 hc         1 GYE       0.040700
    124 H69          1.5840    -9.7960    -4.8390 hc         1 GYE       0.040700
    125 H70          1.3900    -8.0540    -4.7610 hc         1 GYE       0.040700
    126 H71         -0.2470    -8.1670    -6.6750 hc         1 GYE       0.039700
    127 H72         -0.0070    -9.9000    -6.7630 hc         1 GYE       0.039700
    128 H73          2.4220    -9.5220    -7.3250 hc         1 GYE       0.039700
    129 H74          2.1510    -7.7890    -7.2760 hc         1 GYE       0.039700
    130 H75          0.5000    -7.9790    -9.1430 hc         1 GYE       0.039700
    131 H76          0.7130    -9.7190    -9.1670 hc         1 GYE       0.039700
    132 H77          3.1580    -9.3550    -9.7780 hc         1 GYE       0.039700
    133 H78          2.8300    -7.6350    -9.8930 hc         1 GYE       0.039700
    134 H79          1.1790    -8.0390   -11.7070 hc         1 GYE       0.039700
    135 H80          1.3930    -9.7730   -11.5440 hc         1 GYE       0.039700
    136 H81          3.8330    -9.4820   -12.1780 hc         1 GYE       0.039700
    137 H82          3.5190    -7.7790   -12.4640 hc         1 GYE       0.039700
    138 H83          1.8580    -8.3760   -14.2360 hc         1 GYE       0.039700
    139 H84          2.1410   -10.0840   -13.9300 hc         1 GYE       0.039700
    140 H85          4.5490    -9.7910   -14.5530 hc         1 GYE       0.038700
    141 H86          4.2490    -8.0880   -14.8840 hc         1 GYE       0.038700
    142 H87          2.6330    -8.7170   -16.6820 hc         1 GYE       0.032700
    143 H88          2.9340   -10.4310   -16.3460 hc         1 GYE       0.032700
    144 H89          4.2350    -9.4070   -16.9650 hc         1 GYE       0.032700
@<TRIPOS>BOND
     1   144    55 1   
     2   142    55 1   
     3   143    55 1   
     4    55    54 1   
     5   141    54 1   
     6    54   140 1   
     7    54    53 1   
     8   138    53 1   
     9   139    53 1   
    10    53    52 1   
    11    52   137 1   
    12    52   136 1   
    13    52    51 1   
    14   134    51 1   
    15   135    51 1   
    16    51    50 1   
    17    50   133 1   
    18    50   132 1   
    19    50    49 1   
    20   131    49 1   
    21   130    49 1   
    22    49    48 1   
    23    48   128 1   
    24    48   129 1   
    25    48    47 1   
    26   127    47 1   
    27   126    47 1   
    28    47    46 1   
    29    46   124 1   
    30    46   125 1   
    31    46    45 1   
    32   111    36 1   
    33   109    34 1   
    34    36    35 1   
    35   123    45 1   
    36   122    45 1   
    37    45    44 1   
    38    34    33 1   
    39   110    35 1   
    40    35    33 1   
    41    35    37 1   
    42   108    33 1   
    43    33    30 1   
    44    44   121 1   
    45    44   120 1   
    46    44    43 1   
    47    38    37 1   
    48    38   113 1   
    49   112    37 1   
    50    37    28 1   
    51   118    43 1   
    52   119    43 1   
    53    43    42 1   
    54   106    31 1   
    55    30   104 1   
    56    30    31 1   
    57    30    29 1   
    58    31   105 1   
    59    31    32 1   
    60    28   103 1   
    61    28    29 1   
    62    28    27 1   
    63    42   117 1   
    64    42    41 2   
    65   116    41 1   
    66    27    26 1   
    67    41    39 1   
    68    32   107 1   
    69   115    40 1   
    70    26   101 1   
    71    26   102 1   
    72    26    25 1   
    73    39    40 1   
    74    39    25 1   
    75    39   114 1   
    76   100    25 1   
    77    25    24 1   
    78    24    99 1   
    79    24    22 1   
    80    23    22 2   
    81    22    21 1   
    82    98    21 1   
    83    21    97 1   
    84    21    20 1   
    85    95    20 1   
    86    20    96 1   
    87    20    19 1   
    88    94    19 1   
    89    19    93 1   
    90    19    18 1   
    91    91    18 1   
    92    18    92 1   
    93    18    17 1   
    94    90    17 1   
    95    17    89 1   
    96    17    16 1   
    97    87    16 1   
    98    16    88 1   
    99    16    15 1   
   100    86    15 1   
   101    15    85 1   
   102    15    14 1   
   103    83    14 1   
   104    14    84 1   
   105    14    13 1   
   106    82    13 1   
   107    13    81 1   
   108    13    12 1   
   109    79    12 1   
   110    12    80 1   
   111    12    11 1   
   112    78    11 1   
   113    11    77 1   
   114    11    10 1   
   115    75    10 1   
   116    10    76 1   
   117    10     9 1   
   118    74     9 1   
   119     9    73 1   
   120     9     8 1   
   121    71     8 1   
   122     8    72 1   
   123     8     7 1   
   124    70     7 1   
   125     7    69 1   
   126     7     6 1   
   127    67     6 1   
   128     6    68 1   
   129     6     5 1   
   130    66     5 1   
   131     5    65 1   
   132     5     4 1   
   133    63     4 1   
   134     4    64 1   
   135     4     3 1   
   136    62     3 1   
   137     3    61 1   
   138     3     2 1   
   139    59     2 1   
   140     2    60 1   
   141     2     1 1   
   142    56     1 1   
   143     1    57 1   
   144     1    58 1   
@<TRIPOS>SUBSTRUCTURE
     1 GYE         1 TEMP              0 ****  ****    0 ROOT
